/*---------------------------------------------------------------------------*\
| =========                 |                                                 |
| \\      /  F ield         | OpenFOAM: The Open Source CFD Toolbox           |
|  \\    /   O peration     | Version:  5.0                                   |
|   \\  /    A nd           | Web:      www.OpenFOAM.org                      |
|    \\/     M anipulation  |                                                 |
\*---------------------------------------------------------------------------*/
Build  : 5.0-dbb428a3a855
Exec   : icoFoam
Date   : Nov 02 2017
Time   : 21:23:13
Host   : "david-VirtualBox"
PID    : 5714
I/O    : uncollated
Case   : /home/david/of-5.0/run/projekt_[uebung_1]/case4_Re1000
nProcs : 1
sigFpe : Enabling floating point exception trapping (FOAM_SIGFPE).
fileModificationChecking : Monitoring run-time modified files using timeStampMaster (fileModificationSkew 10)
allowSystemOperations : Allowing user-supplied system call operations

// * * * * * * * * * * * * * * * * * * * * * * * * * * * * * * * * * * * * * //
Create time

Create mesh for time = 0


PISO: Operating solver in PISO mode

Reading transportProperties

Reading field p

Reading field U

Reading/calculating face flux field phi


Starting time loop

Time = 0.005

Courant Number mean: 0 max: 0
smoothSolver:  Solving for Ux, Initial residual = 1, Final residual = 1.2122e-06, No Iterations 2
smoothSolver:  Solving for Uy, Initial residual = 0, Final residual = 0, No Iterations 0
DICPCG:  Solving for p, Initial residual = 1, Final residual = 0.0288921, No Iterations 23
time step continuity errors : sum local = 5.58331e-06, global = -7.44463e-21, cumulative = -7.44463e-21
DICPCG:  Solving for p, Initial residual = 0.0440146, Final residual = 7.82676e-07, No Iterations 32
time step continuity errors : sum local = 3.35175e-10, global = 9.71937e-22, cumulative = -6.47269e-21
ExecutionTime = 0.03 s  ClockTime = 0 s

Time = 0.01

Courant Number mean: 0.00409411 max: 0.033996
smoothSolver:  Solving for Ux, Initial residual = 0.317668, Final residual = 3.27593e-07, No Iterations 2
smoothSolver:  Solving for Uy, Initial residual = 0.330318, Final residual = 5.62032e-07, No Iterations 2
DICPCG:  Solving for p, Initial residual = 0.105372, Final residual = 0.0041418, No Iterations 9
time step continuity errors : sum local = 2.04225e-06, global = 2.58908e-20, cumulative = 1.94181e-20
DICPCG:  Solving for p, Initial residual = 0.00547176, Final residual = 6.51609e-07, No Iterations 27
time step continuity errors : sum local = 3.28103e-10, global = 2.90754e-20, cumulative = 4.84935e-20
ExecutionTime = 0.04 s  ClockTime = 0 s

Time = 0.015

Courant Number mean: 0.00797758 max: 0.0661429
smoothSolver:  Solving for Ux, Initial residual = 0.184412, Final residual = 1.64955e-07, No Iterations 2
smoothSolver:  Solving for Uy, Initial residual = 0.195662, Final residual = 3.14289e-07, No Iterations 2
DICPCG:  Solving for p, Initial residual = 0.0643846, Final residual = 0.00235809, No Iterations 10
time step continuity errors : sum local = 1.42255e-06, global = 3.51552e-21, cumulative = 5.2009e-20
DICPCG:  Solving for p, Initial residual = 0.00347678, Final residual = 8.94031e-07, No Iterations 25
time step continuity errors : sum local = 5.13842e-10, global = -6.96693e-20, cumulative = -1.76603e-20
ExecutionTime = 0.05 s  ClockTime = 0 s

Time = 0.02

Courant Number mean: 0.0116632 max: 0.0965481
smoothSolver:  Solving for Ux, Initial residual = 0.127766, Final residual = 2.04251e-07, No Iterations 2
smoothSolver:  Solving for Uy, Initial residual = 0.137557, Final residual = 2.09174e-07, No Iterations 2
DICPCG:  Solving for p, Initial residual = 0.0503036, Final residual = 0.00123933, No Iterations 11
time step continuity errors : sum local = 9.10625e-07, global = -1.22092e-19, cumulative = -1.39752e-19
DICPCG:  Solving for p, Initial residual = 0.00265512, Final residual = 7.93746e-07, No Iterations 26
time step continuity errors : sum local = 4.92788e-10, global = -7.71036e-20, cumulative = -2.16856e-19
ExecutionTime = 0.06 s  ClockTime = 0 s

Time = 0.025

Courant Number mean: 0.0151624 max: 0.125312
smoothSolver:  Solving for Ux, Initial residual = 0.0965155, Final residual = 3.61727e-07, No Iterations 2
smoothSolver:  Solving for Uy, Initial residual = 0.105149, Final residual = 1.57869e-07, No Iterations 2
DICPCG:  Solving for p, Initial residual = 0.0504694, Final residual = 0.00249733, No Iterations 10
time step continuity errors : sum local = 1.76806e-06, global = -8.46413e-20, cumulative = -3.01497e-19
DICPCG:  Solving for p, Initial residual = 0.00390668, Final residual = 4.34513e-07, No Iterations 27
time step continuity errors : sum local = 2.94402e-10, global = 3.39351e-20, cumulative = -2.67562e-19
ExecutionTime = 0.06 s  ClockTime = 0 s

Time = 0.03

Courant Number mean: 0.0184851 max: 0.152524
smoothSolver:  Solving for Ux, Initial residual = 0.0768332, Final residual = 6.27347e-07, No Iterations 2
smoothSolver:  Solving for Uy, Initial residual = 0.0845165, Final residual = 1.35632e-07, No Iterations 2
DICPCG:  Solving for p, Initial residual = 0.0528902, Final residual = 0.00241722, No Iterations 10
time step continuity errors : sum local = 1.83519e-06, global = -9.10933e-20, cumulative = -3.58655e-19
DICPCG:  Solving for p, Initial residual = 0.00403508, Final residual = 6.38743e-07, No Iterations 27
time step continuity errors : sum local = 4.66859e-10, global = -1.3634e-19, cumulative = -4.94995e-19
ExecutionTime = 0.07 s  ClockTime = 0 s

Time = 0.035

Courant Number mean: 0.0216406 max: 0.178345
smoothSolver:  Solving for Ux, Initial residual = 0.0633385, Final residual = 9.87316e-07, No Iterations 2
smoothSolver:  Solving for Uy, Initial residual = 0.0702551, Final residual = 1.32373e-07, No Iterations 2
DICPCG:  Solving for p, Initial residual = 0.0540672, Final residual = 0.00257158, No Iterations 9
time step continuity errors : sum local = 2.05173e-06, global = 1.2629e-19, cumulative = -3.68705e-19
DICPCG:  Solving for p, Initial residual = 0.00452729, Final residual = 5.01517e-07, No Iterations 28
time step continuity errors : sum local = 3.94098e-10, global = 1.87791e-19, cumulative = -1.80915e-19
ExecutionTime = 0.07 s  ClockTime = 0 s

Time = 0.04

Courant Number mean: 0.0246369 max: 0.20282
smoothSolver:  Solving for Ux, Initial residual = 0.0537921, Final residual = 1.42577e-06, No Iterations 2
smoothSolver:  Solving for Uy, Initial residual = 0.0598666, Final residual = 1.46493e-07, No Iterations 2
DICPCG:  Solving for p, Initial residual = 0.0545713, Final residual = 0.00242391, No Iterations 9
time step continuity errors : sum local = 2.08048e-06, global = -1.37105e-20, cumulative = -1.94625e-19
DICPCG:  Solving for p, Initial residual = 0.00458264, Final residual = 5.18207e-07, No Iterations 28
time step continuity errors : sum local = 4.38402e-10, global = 9.05142e-20, cumulative = -1.04111e-19
ExecutionTime = 0.08 s  ClockTime = 0 s

Time = 0.045

Courant Number mean: 0.0274813 max: 0.226002
smoothSolver:  Solving for Ux, Initial residual = 0.0466135, Final residual = 1.92604e-06, No Iterations 2
smoothSolver:  Solving for Uy, Initial residual = 0.0520205, Final residual = 1.76405e-07, No Iterations 2
DICPCG:  Solving for p, Initial residual = 0.054524, Final residual = 0.00227308, No Iterations 9
time step continuity errors : sum local = 2.10747e-06, global = -1.81153e-19, cumulative = -2.85264e-19
DICPCG:  Solving for p, Initial residual = 0.00460874, Final residual = 5.03875e-07, No Iterations 28
time step continuity errors : sum local = 4.62526e-10, global = 1.13179e-19, cumulative = -1.72085e-19
ExecutionTime = 0.08 s  ClockTime = 0 s

Time = 0.05

Courant Number mean: 0.0301799 max: 0.247947
smoothSolver:  Solving for Ux, Initial residual = 0.041025, Final residual = 2.47104e-06, No Iterations 2
smoothSolver:  Solving for Uy, Initial residual = 0.0458781, Final residual = 2.20972e-07, No Iterations 2
DICPCG:  Solving for p, Initial residual = 0.0536977, Final residual = 0.00212083, No Iterations 9
time step continuity errors : sum local = 2.13022e-06, global = 1.56606e-19, cumulative = -1.54786e-20
DICPCG:  Solving for p, Initial residual = 0.00462576, Final residual = 9.26802e-07, No Iterations 27
time step continuity errors : sum local = 9.22309e-10, global = -1.49699e-19, cumulative = -1.65178e-19
ExecutionTime = 0.09 s  ClockTime = 0 s

Time = 0.055

Courant Number mean: 0.0327392 max: 0.268878
smoothSolver:  Solving for Ux, Initial residual = 0.0365548, Final residual = 3.04357e-06, No Iterations 2
smoothSolver:  Solving for Uy, Initial residual = 0.0410313, Final residual = 2.79201e-07, No Iterations 2
DICPCG:  Solving for p, Initial residual = 0.0525215, Final residual = 0.00197883, No Iterations 9
time step continuity errors : sum local = 2.15194e-06, global = -2.57874e-20, cumulative = -1.90965e-19
DICPCG:  Solving for p, Initial residual = 0.00464172, Final residual = 7.58219e-07, No Iterations 27
time step continuity errors : sum local = 8.17869e-10, global = -1.34086e-19, cumulative = -3.25051e-19
ExecutionTime = 0.09 s  ClockTime = 0 s

Time = 0.06

Courant Number mean: 0.0351637 max: 0.288757
smoothSolver:  Solving for Ux, Initial residual = 0.0328759, Final residual = 3.62715e-06, No Iterations 2
smoothSolver:  Solving for Uy, Initial residual = 0.0370687, Final residual = 3.47627e-07, No Iterations 2
DICPCG:  Solving for p, Initial residual = 0.0515091, Final residual = 0.00184836, No Iterations 9
time step continuity errors : sum local = 2.17431e-06, global = -3.92213e-19, cumulative = -7.17264e-19
DICPCG:  Solving for p, Initial residual = 0.00462333, Final residual = 9.24283e-07, No Iterations 26
time step continuity errors : sum local = 1.07772e-09, global = 1.75838e-19, cumulative = -5.41426e-19
ExecutionTime = 0.1 s  ClockTime = 0 s

Time = 0.065

Courant Number mean: 0.0374924 max: 0.307612
smoothSolver:  Solving for Ux, Initial residual = 0.0297836, Final residual = 4.20656e-06, No Iterations 2
smoothSolver:  Solving for Uy, Initial residual = 0.0337968, Final residual = 4.2716e-07, No Iterations 2
DICPCG:  Solving for p, Initial residual = 0.0508149, Final residual = 0.00251021, No Iterations 8
time step continuity errors : sum local = 3.10017e-06, global = 1.33921e-19, cumulative = -4.07505e-19
DICPCG:  Solving for p, Initial residual = 0.00465021, Final residual = 6.16952e-07, No Iterations 27
time step continuity errors : sum local = 7.75272e-10, global = -1.72922e-19, cumulative = -5.80427e-19
ExecutionTime = 0.1 s  ClockTime = 0 s

Time = 0.07

Courant Number mean: 0.0397374 max: 0.325755
smoothSolver:  Solving for Ux, Initial residual = 0.0271352, Final residual = 4.76745e-06, No Iterations 2
smoothSolver:  Solving for Uy, Initial residual = 0.0310605, Final residual = 5.21367e-07, No Iterations 2
DICPCG:  Solving for p, Initial residual = 0.0504444, Final residual = 0.0023317, No Iterations 8
time step continuity errors : sum local = 3.10951e-06, global = -2.63871e-20, cumulative = -6.06815e-19
DICPCG:  Solving for p, Initial residual = 0.00457159, Final residual = 8.73068e-07, No Iterations 26
time step continuity errors : sum local = 1.18905e-09, global = -3.61809e-19, cumulative = -9.68623e-19
ExecutionTime = 0.1 s  ClockTime = 0 s

Time = 0.075

Courant Number mean: 0.0418911 max: 0.343071
smoothSolver:  Solving for Ux, Initial residual = 0.0248018, Final residual = 5.29358e-06, No Iterations 2
smoothSolver:  Solving for Uy, Initial residual = 0.0287561, Final residual = 6.54003e-07, No Iterations 2
DICPCG:  Solving for p, Initial residual = 0.0514716, Final residual = 0.00218313, No Iterations 8
time step continuity errors : sum local = 3.16313e-06, global = -1.92009e-20, cumulative = -9.87824e-19
DICPCG:  Solving for p, Initial residual = 0.00453401, Final residual = 7.52866e-07, No Iterations 25
time step continuity errors : sum local = 1.12322e-09, global = -7.18613e-20, cumulative = -1.05969e-18
ExecutionTime = 0.11 s  ClockTime = 0 s

Time = 0.08

Courant Number mean: 0.043955 max: 0.359956
smoothSolver:  Solving for Ux, Initial residual = 0.0227259, Final residual = 5.77648e-06, No Iterations 2
smoothSolver:  Solving for Uy, Initial residual = 0.0267814, Final residual = 8.03281e-07, No Iterations 2
DICPCG:  Solving for p, Initial residual = 0.0424616, Final residual = 0.00204859, No Iterations 8
time step continuity errors : sum local = 3.19803e-06, global = 1.23994e-19, cumulative = -9.35691e-19
DICPCG:  Solving for p, Initial residual = 0.00424588, Final residual = 9.22081e-07, No Iterations 25
time step continuity errors : sum local = 1.49283e-09, global = 2.2247e-19, cumulative = -7.13221e-19
ExecutionTime = 0.12 s  ClockTime = 0 s

Time = 0.085

Courant Number mean: 0.0459366 max: 0.376559
smoothSolver:  Solving for Ux, Initial residual = 0.0209281, Final residual = 6.20817e-06, No Iterations 2
smoothSolver:  Solving for Uy, Initial residual = 0.0251005, Final residual = 9.59442e-07, No Iterations 2
DICPCG:  Solving for p, Initial residual = 0.0393771, Final residual = 0.00186387, No Iterations 8
time step continuity errors : sum local = 3.09892e-06, global = -9.008e-20, cumulative = -8.03301e-19
DICPCG:  Solving for p, Initial residual = 0.00419375, Final residual = 9.23541e-07, No Iterations 25
time step continuity errors : sum local = 1.56737e-09, global = 3.22001e-19, cumulative = -4.813e-19
ExecutionTime = 0.13 s  ClockTime = 0 s

Time = 0.09

Courant Number mean: 0.0478374 max: 0.39241
smoothSolver:  Solving for Ux, Initial residual = 0.0192976, Final residual = 6.56454e-06, No Iterations 2
smoothSolver:  Solving for Uy, Initial residual = 0.0237397, Final residual = 1.09879e-06, No Iterations 2
DICPCG:  Solving for p, Initial residual = 0.0390802, Final residual = 0.00180005, No Iterations 8
time step continuity errors : sum local = 3.19734e-06, global = 7.25024e-20, cumulative = -4.08798e-19
DICPCG:  Solving for p, Initial residual = 0.00413002, Final residual = 3.47599e-07, No Iterations 27
time step continuity errors : sum local = 6.27431e-10, global = -1.21864e-19, cumulative = -5.30662e-19
ExecutionTime = 0.14 s  ClockTime = 0 s

Time = 0.095

Courant Number mean: 0.0496936 max: 0.407629
smoothSolver:  Solving for Ux, Initial residual = 0.0178018, Final residual = 6.85946e-06, No Iterations 2
smoothSolver:  Solving for Uy, Initial residual = 0.022495, Final residual = 1.24433e-06, No Iterations 2
DICPCG:  Solving for p, Initial residual = 0.0387855, Final residual = 0.00169673, No Iterations 8
time step continuity errors : sum local = 3.21497e-06, global = 9.15172e-20, cumulative = -4.39145e-19
DICPCG:  Solving for p, Initial residual = 0.0043656, Final residual = 3.79676e-07, No Iterations 27
time step continuity errors : sum local = 7.38517e-10, global = 1.3847e-19, cumulative = -3.00675e-19
ExecutionTime = 0.14 s  ClockTime = 0 s

Time = 0.1

Courant Number mean: 0.051491 max: 0.422953
smoothSolver:  Solving for Ux, Initial residual = 0.0164377, Final residual = 7.06248e-06, No Iterations 2
smoothSolver:  Solving for Uy, Initial residual = 0.0215106, Final residual = 1.3693e-06, No Iterations 2
DICPCG:  Solving for p, Initial residual = 0.0354515, Final residual = 0.00160858, No Iterations 8
time step continuity errors : sum local = 3.24481e-06, global = 5.70579e-19, cumulative = 2.69904e-19
DICPCG:  Solving for p, Initial residual = 0.00412729, Final residual = 3.52096e-07, No Iterations 27
time step continuity errors : sum local = 7.1951e-10, global = -2.99688e-19, cumulative = -2.97837e-20
ExecutionTime = 0.16 s  ClockTime = 0 s

Time = 0.105

Courant Number mean: 0.0532191 max: 0.437559
smoothSolver:  Solving for Ux, Initial residual = 0.0151909, Final residual = 7.19917e-06, No Iterations 2
smoothSolver:  Solving for Uy, Initial residual = 0.0205394, Final residual = 1.47487e-06, No Iterations 2
DICPCG:  Solving for p, Initial residual = 0.0349874, Final residual = 0.00150403, No Iterations 8
time step continuity errors : sum local = 3.21714e-06, global = -6.88421e-20, cumulative = -9.86258e-20
DICPCG:  Solving for p, Initial residual = 0.00422634, Final residual = 3.5757e-07, No Iterations 27
time step continuity errors : sum local = 7.80032e-10, global = 7.42395e-21, cumulative = -9.12018e-20
ExecutionTime = 0.16 s  ClockTime = 0 s

Time = 0.11

Courant Number mean: 0.0548801 max: 0.451453
smoothSolver:  Solving for Ux, Initial residual = 0.014076, Final residual = 7.25128e-06, No Iterations 2
smoothSolver:  Solving for Uy, Initial residual = 0.0197427, Final residual = 1.54706e-06, No Iterations 2
DICPCG:  Solving for p, Initial residual = 0.0311674, Final residual = 0.00137495, No Iterations 8
time step continuity errors : sum local = 3.09036e-06, global = 4.72537e-19, cumulative = 3.81335e-19
DICPCG:  Solving for p, Initial residual = 0.00374356, Final residual = 7.77824e-07, No Iterations 25
time step continuity errors : sum local = 1.76184e-09, global = 1.23664e-19, cumulative = 5.04999e-19
ExecutionTime = 0.17 s  ClockTime = 0 s

Time = 0.115

Courant Number mean: 0.0564714 max: 0.464608
smoothSolver:  Solving for Ux, Initial residual = 0.0130881, Final residual = 7.24453e-06, No Iterations 2
smoothSolver:  Solving for Uy, Initial residual = 0.0188322, Final residual = 1.68164e-06, No Iterations 2
DICPCG:  Solving for p, Initial residual = 0.0322132, Final residual = 0.00133362, No Iterations 8
time step continuity errors : sum local = 3.13119e-06, global = 3.1102e-20, cumulative = 5.36101e-19
DICPCG:  Solving for p, Initial residual = 0.0038184, Final residual = 7.90502e-07, No Iterations 25
time step continuity errors : sum local = 1.88464e-09, global = -5.62472e-19, cumulative = -2.63716e-20
ExecutionTime = 0.17 s  ClockTime = 0 s

Time = 0.12

Courant Number mean: 0.0579874 max: 0.477032
smoothSolver:  Solving for Ux, Initial residual = 0.0122674, Final residual = 7.16746e-06, No Iterations 2
smoothSolver:  Solving for Uy, Initial residual = 0.0181078, Final residual = 1.77727e-06, No Iterations 2
DICPCG:  Solving for p, Initial residual = 0.0292801, Final residual = 0.00121424, No Iterations 8
time step continuity errors : sum local = 2.99486e-06, global = 1.57661e-19, cumulative = 1.31289e-19
DICPCG:  Solving for p, Initial residual = 0.00364719, Final residual = 7.13926e-07, No Iterations 26
time step continuity errors : sum local = 1.7778e-09, global = -1.37689e-19, cumulative = -6.40031e-21
ExecutionTime = 0.18 s  ClockTime = 0 s

Time = 0.125

Courant Number mean: 0.0594301 max: 0.488669
smoothSolver:  Solving for Ux, Initial residual = 0.0115689, Final residual = 7.03481e-06, No Iterations 2
smoothSolver:  Solving for Uy, Initial residual = 0.0174668, Final residual = 1.84148e-06, No Iterations 2
DICPCG:  Solving for p, Initial residual = 0.0297706, Final residual = 0.0011997, No Iterations 8
time step continuity errors : sum local = 3.10563e-06, global = -7.29408e-19, cumulative = -7.35808e-19
DICPCG:  Solving for p, Initial residual = 0.00355178, Final residual = 7.58235e-07, No Iterations 26
time step continuity errors : sum local = 1.98783e-09, global = 8.82886e-20, cumulative = -6.4752e-19
ExecutionTime = 0.19 s  ClockTime = 0 s

Time = 0.13

Courant Number mean: 0.0608159 max: 0.499524
smoothSolver:  Solving for Ux, Initial residual = 0.0109301, Final residual = 6.85443e-06, No Iterations 2
smoothSolver:  Solving for Uy, Initial residual = 0.0168893, Final residual = 1.86888e-06, No Iterations 2
DICPCG:  Solving for p, Initial residual = 0.0275767, Final residual = 0.00112925, No Iterations 8
time step continuity errors : sum local = 3.05936e-06, global = -3.59431e-19, cumulative = -1.00695e-18
DICPCG:  Solving for p, Initial residual = 0.00339162, Final residual = 3.11021e-07, No Iterations 27
time step continuity errors : sum local = 8.53425e-10, global = 6.80356e-20, cumulative = -9.38915e-19
ExecutionTime = 0.2 s  ClockTime = 0 s

Time = 0.135

Courant Number mean: 0.0621384 max: 0.509618
smoothSolver:  Solving for Ux, Initial residual = 0.0103386, Final residual = 6.62668e-06, No Iterations 2
smoothSolver:  Solving for Uy, Initial residual = 0.0162824, Final residual = 1.94537e-06, No Iterations 2
DICPCG:  Solving for p, Initial residual = 0.0259025, Final residual = 0.00108742, No Iterations 8
time step continuity errors : sum local = 3.07078e-06, global = 2.67593e-19, cumulative = -6.71322e-19
DICPCG:  Solving for p, Initial residual = 0.00326834, Final residual = 3.06936e-07, No Iterations 27
time step continuity errors : sum local = 8.7843e-10, global = 8.0464e-20, cumulative = -5.90858e-19
ExecutionTime = 0.21 s  ClockTime = 0 s

Time = 0.14

Courant Number mean: 0.0633965 max: 0.518966
smoothSolver:  Solving for Ux, Initial residual = 0.00981125, Final residual = 6.36415e-06, No Iterations 2
smoothSolver:  Solving for Uy, Initial residual = 0.0157903, Final residual = 2.01693e-06, No Iterations 2
DICPCG:  Solving for p, Initial residual = 0.0250122, Final residual = 0.00104563, No Iterations 8
time step continuity errors : sum local = 3.07303e-06, global = 1.31274e-19, cumulative = -4.59584e-19
DICPCG:  Solving for p, Initial residual = 0.00310556, Final residual = 3.15943e-07, No Iterations 27
time step continuity errors : sum local = 9.39405e-10, global = -2.18851e-19, cumulative = -6.78435e-19
ExecutionTime = 0.21 s  ClockTime = 0 s

Time = 0.145

Courant Number mean: 0.0645992 max: 0.52756
smoothSolver:  Solving for Ux, Initial residual = 0.00933072, Final residual = 6.0612e-06, No Iterations 2
smoothSolver:  Solving for Uy, Initial residual = 0.0153382, Final residual = 2.07972e-06, No Iterations 2
DICPCG:  Solving for p, Initial residual = 0.0230118, Final residual = 0.000992343, No Iterations 8
time step continuity errors : sum local = 3.02966e-06, global = -1.41717e-19, cumulative = -8.20152e-19
DICPCG:  Solving for p, Initial residual = 0.00300711, Final residual = 3.49959e-07, No Iterations 27
time step continuity errors : sum local = 1.07945e-09, global = 4.05567e-19, cumulative = -4.14586e-19
ExecutionTime = 0.22 s  ClockTime = 0 s

Time = 0.15

Courant Number mean: 0.0657494 max: 0.535586
smoothSolver:  Solving for Ux, Initial residual = 0.00887033, Final residual = 5.7401e-06, No Iterations 2
smoothSolver:  Solving for Uy, Initial residual = 0.0149211, Final residual = 2.12232e-06, No Iterations 2
DICPCG:  Solving for p, Initial residual = 0.02275, Final residual = 0.000952637, No Iterations 8
time step continuity errors : sum local = 3.0161e-06, global = 8.72676e-20, cumulative = -3.27318e-19
DICPCG:  Solving for p, Initial residual = 0.00285384, Final residual = 3.70442e-07, No Iterations 27
time step continuity errors : sum local = 1.18349e-09, global = -4.04285e-20, cumulative = -3.67746e-19
ExecutionTime = 0.23 s  ClockTime = 0 s

Time = 0.155

Courant Number mean: 0.0668656 max: 0.543039
smoothSolver:  Solving for Ux, Initial residual = 0.00843826, Final residual = 5.3978e-06, No Iterations 2
smoothSolver:  Solving for Uy, Initial residual = 0.0145172, Final residual = 2.1357e-06, No Iterations 2
DICPCG:  Solving for p, Initial residual = 0.0220291, Final residual = 0.000901302, No Iterations 8
time step continuity errors : sum local = 2.949e-06, global = 1.60887e-19, cumulative = -2.0686e-19
DICPCG:  Solving for p, Initial residual = 0.00271289, Final residual = 4.63363e-07, No Iterations 27
time step continuity errors : sum local = 1.52707e-09, global = -8.55925e-20, cumulative = -2.92452e-19
ExecutionTime = 0.23 s  ClockTime = 0 s

Time = 0.16

Courant Number mean: 0.0679279 max: 0.54991
smoothSolver:  Solving for Ux, Initial residual = 0.00808227, Final residual = 5.04895e-06, No Iterations 2
smoothSolver:  Solving for Uy, Initial residual = 0.0141077, Final residual = 2.12755e-06, No Iterations 2
DICPCG:  Solving for p, Initial residual = 0.0221625, Final residual = 0.000822192, No Iterations 8
time step continuity errors : sum local = 2.76762e-06, global = 1.2416e-19, cumulative = -1.68292e-19
DICPCG:  Solving for p, Initial residual = 0.002642, Final residual = 6.36745e-07, No Iterations 27
time step continuity errors : sum local = 2.15722e-09, global = -2.72887e-19, cumulative = -4.41179e-19
ExecutionTime = 0.24 s  ClockTime = 0 s

Time = 0.165

Courant Number mean: 0.0689583 max: 0.55615
smoothSolver:  Solving for Ux, Initial residual = 0.00778538, Final residual = 4.67758e-06, No Iterations 2
smoothSolver:  Solving for Uy, Initial residual = 0.0136615, Final residual = 2.15977e-06, No Iterations 2
DICPCG:  Solving for p, Initial residual = 0.0208918, Final residual = 0.000802916, No Iterations 8
time step continuity errors : sum local = 2.77568e-06, global = 4.34683e-19, cumulative = -6.49595e-21
DICPCG:  Solving for p, Initial residual = 0.00262275, Final residual = 5.73725e-07, No Iterations 27
time step continuity errors : sum local = 1.99535e-09, global = 4.46905e-19, cumulative = 4.40409e-19
ExecutionTime = 0.24 s  ClockTime = 0 s

Time = 0.17

Courant Number mean: 0.0699472 max: 0.561895
smoothSolver:  Solving for Ux, Initial residual = 0.00756838, Final residual = 4.32275e-06, No Iterations 2
smoothSolver:  Solving for Uy, Initial residual = 0.0132861, Final residual = 2.17893e-06, No Iterations 2
DICPCG:  Solving for p, Initial residual = 0.0204472, Final residual = 0.000748584, No Iterations 8
time step continuity errors : sum local = 2.6512e-06, global = 5.30305e-19, cumulative = 9.70715e-19
DICPCG:  Solving for p, Initial residual = 0.00257251, Final residual = 6.27925e-07, No Iterations 27
time step continuity errors : sum local = 2.2357e-09, global = -2.5684e-19, cumulative = 7.13875e-19
ExecutionTime = 0.25 s  ClockTime = 0 s

Time = 0.175

Courant Number mean: 0.0708901 max: 0.567131
smoothSolver:  Solving for Ux, Initial residual = 0.00735726, Final residual = 3.97083e-06, No Iterations 2
smoothSolver:  Solving for Uy, Initial residual = 0.012906, Final residual = 2.1733e-06, No Iterations 2
DICPCG:  Solving for p, Initial residual = 0.0193841, Final residual = 0.000728331, No Iterations 8
time step continuity errors : sum local = 2.63812e-06, global = 1.31108e-20, cumulative = 7.26986e-19
DICPCG:  Solving for p, Initial residual = 0.00250286, Final residual = 5.88874e-07, No Iterations 27
time step continuity errors : sum local = 2.14208e-09, global = -6.95369e-19, cumulative = 3.16164e-20
ExecutionTime = 0.25 s  ClockTime = 0 s

Time = 0.18

Courant Number mean: 0.0717985 max: 0.571906
smoothSolver:  Solving for Ux, Initial residual = 0.00718015, Final residual = 3.64949e-06, No Iterations 2
smoothSolver:  Solving for Uy, Initial residual = 0.012552, Final residual = 2.1445e-06, No Iterations 2
DICPCG:  Solving for p, Initial residual = 0.0174265, Final residual = 0.000711809, No Iterations 8
time step continuity errors : sum local = 2.6353e-06, global = 8.12291e-20, cumulative = 1.12846e-19
DICPCG:  Solving for p, Initial residual = 0.00230205, Final residual = 5.69862e-07, No Iterations 24
time step continuity errors : sum local = 2.11364e-09, global = -2.39882e-21, cumulative = 1.10447e-19
ExecutionTime = 0.26 s  ClockTime = 0 s

Time = 0.185

Courant Number mean: 0.0726828 max: 0.576258
smoothSolver:  Solving for Ux, Initial residual = 0.0070516, Final residual = 3.37182e-06, No Iterations 2
smoothSolver:  Solving for Uy, Initial residual = 0.0122208, Final residual = 2.09999e-06, No Iterations 2
DICPCG:  Solving for p, Initial residual = 0.0169104, Final residual = 0.000631834, No Iterations 8
time step continuity errors : sum local = 2.38792e-06, global = -1.08237e-19, cumulative = 2.21012e-21
DICPCG:  Solving for p, Initial residual = 0.00222362, Final residual = 7.36992e-07, No Iterations 24
time step continuity errors : sum local = 2.79084e-09, global = 2.61389e-20, cumulative = 2.8349e-20
ExecutionTime = 0.27 s  ClockTime = 1 s

Time = 0.19

Courant Number mean: 0.0735416 max: 0.580197
smoothSolver:  Solving for Ux, Initial residual = 0.00690621, Final residual = 3.07008e-06, No Iterations 2
smoothSolver:  Solving for Uy, Initial residual = 0.0118619, Final residual = 2.04254e-06, No Iterations 2
DICPCG:  Solving for p, Initial residual = 0.0167756, Final residual = 0.000602323, No Iterations 8
time step continuity errors : sum local = 2.31881e-06, global = 2.29129e-20, cumulative = 5.12619e-20
DICPCG:  Solving for p, Initial residual = 0.00215514, Final residual = 6.04966e-07, No Iterations 27
time step continuity errors : sum local = 2.3369e-09, global = 1.38263e-19, cumulative = 1.89525e-19
ExecutionTime = 0.27 s  ClockTime = 1 s

Time = 0.195

Courant Number mean: 0.0743718 max: 0.583754
smoothSolver:  Solving for Ux, Initial residual = 0.0067633, Final residual = 2.77764e-06, No Iterations 2
smoothSolver:  Solving for Uy, Initial residual = 0.0114794, Final residual = 1.98281e-06, No Iterations 2
DICPCG:  Solving for p, Initial residual = 0.0166997, Final residual = 0.000588042, No Iterations 8
time step continuity errors : sum local = 2.31545e-06, global = -2.4985e-19, cumulative = -6.03247e-20
DICPCG:  Solving for p, Initial residual = 0.00206075, Final residual = 5.82197e-07, No Iterations 27
time step continuity errors : sum local = 2.3018e-09, global = -1.23746e-19, cumulative = -1.84071e-19
ExecutionTime = 0.28 s  ClockTime = 1 s

Time = 0.2

Courant Number mean: 0.0751873 max: 0.586973
smoothSolver:  Solving for Ux, Initial residual = 0.00665677, Final residual = 2.52462e-06, No Iterations 2
smoothSolver:  Solving for Uy, Initial residual = 0.0111214, Final residual = 1.91105e-06, No Iterations 2
DICPCG:  Solving for p, Initial residual = 0.0168186, Final residual = 0.000632496, No Iterations 7
time step continuity errors : sum local = 2.52194e-06, global = 4.17002e-20, cumulative = -1.42371e-19
DICPCG:  Solving for p, Initial residual = 0.00210181, Final residual = 7.88532e-07, No Iterations 26
time step continuity errors : sum local = 3.19646e-09, global = 4.18843e-19, cumulative = 2.76472e-19
ExecutionTime = 0.3 s  ClockTime = 1 s

Time = 0.205

Courant Number mean: 0.0760232 max: 0.589651
smoothSolver:  Solving for Ux, Initial residual = 0.00651207, Final residual = 2.18791e-06, No Iterations 2
smoothSolver:  Solving for Uy, Initial residual = 0.0110089, Final residual = 1.79768e-06, No Iterations 2
DICPCG:  Solving for p, Initial residual = 0.015726, Final residual = 0.000692179, No Iterations 7
time step continuity errors : sum local = 2.8129e-06, global = 3.80834e-19, cumulative = 6.57306e-19
DICPCG:  Solving for p, Initial residual = 0.00204619, Final residual = 5.17495e-07, No Iterations 27
time step continuity errors : sum local = 2.12068e-09, global = 2.78594e-19, cumulative = 9.35901e-19
ExecutionTime = 0.3 s  ClockTime = 1 s

Time = 0.21

Courant Number mean: 0.0768741 max: 0.591889
smoothSolver:  Solving for Ux, Initial residual = 0.00642746, Final residual = 1.9186e-06, No Iterations 2
smoothSolver:  Solving for Uy, Initial residual = 0.0107817, Final residual = 1.7039e-06, No Iterations 2
DICPCG:  Solving for p, Initial residual = 0.0161304, Final residual = 0.000645133, No Iterations 7
time step continuity errors : sum local = 2.66397e-06, global = -7.93266e-20, cumulative = 8.56574e-19
DICPCG:  Solving for p, Initial residual = 0.0021333, Final residual = 5.4193e-07, No Iterations 27
time step continuity errors : sum local = 2.25538e-09, global = -3.05602e-19, cumulative = 5.50972e-19
ExecutionTime = 0.31 s  ClockTime = 1 s

Time = 0.215

Courant Number mean: 0.0777363 max: 0.593785
smoothSolver:  Solving for Ux, Initial residual = 0.00635191, Final residual = 1.67092e-06, No Iterations 2
smoothSolver:  Solving for Uy, Initial residual = 0.0105815, Final residual = 1.6163e-06, No Iterations 2
DICPCG:  Solving for p, Initial residual = 0.0153577, Final residual = 0.000716501, No Iterations 7
time step continuity errors : sum local = 3.00407e-06, global = 3.68923e-19, cumulative = 9.19895e-19
DICPCG:  Solving for p, Initial residual = 0.00211563, Final residual = 5.4761e-07, No Iterations 27
time step continuity errors : sum local = 2.31429e-09, global = -9.4919e-20, cumulative = 8.24976e-19
ExecutionTime = 0.32 s  ClockTime = 1 s

Time = 0.22

Courant Number mean: 0.0785813 max: 0.595428
smoothSolver:  Solving for Ux, Initial residual = 0.00630091, Final residual = 1.48529e-06, No Iterations 2
smoothSolver:  Solving for Uy, Initial residual = 0.0103388, Final residual = 1.53045e-06, No Iterations 2
DICPCG:  Solving for p, Initial residual = 0.0139367, Final residual = 0.000688397, No Iterations 7
time step continuity errors : sum local = 2.92781e-06, global = -1.94222e-19, cumulative = 6.30754e-19
DICPCG:  Solving for p, Initial residual = 0.00200792, Final residual = 5.49176e-07, No Iterations 27
time step continuity errors : sum local = 2.35202e-09, global = 3.90222e-19, cumulative = 1.02098e-18
ExecutionTime = 0.32 s  ClockTime = 1 s

Time = 0.225

Courant Number mean: 0.0794043 max: 0.596834
smoothSolver:  Solving for Ux, Initial residual = 0.00626236, Final residual = 1.3193e-06, No Iterations 2
smoothSolver:  Solving for Uy, Initial residual = 0.0101142, Final residual = 1.44147e-06, No Iterations 2
DICPCG:  Solving for p, Initial residual = 0.0135619, Final residual = 0.000514967, No Iterations 7
time step continuity errors : sum local = 2.2142e-06, global = -1.19321e-19, cumulative = 9.01655e-19
DICPCG:  Solving for p, Initial residual = 0.00181413, Final residual = 5.1482e-07, No Iterations 27
time step continuity errors : sum local = 2.22173e-09, global = -3.93738e-20, cumulative = 8.62282e-19
ExecutionTime = 0.33 s  ClockTime = 1 s

Time = 0.23

Courant Number mean: 0.0802226 max: 0.598006
smoothSolver:  Solving for Ux, Initial residual = 0.00620237, Final residual = 1.15644e-06, No Iterations 2
smoothSolver:  Solving for Uy, Initial residual = 0.00985028, Final residual = 1.36147e-06, No Iterations 2
DICPCG:  Solving for p, Initial residual = 0.0137925, Final residual = 0.000621027, No Iterations 7
time step continuity errors : sum local = 2.69552e-06, global = -2.17383e-19, cumulative = 6.44898e-19
DICPCG:  Solving for p, Initial residual = 0.00190175, Final residual = 5.15983e-07, No Iterations 27
time step continuity errors : sum local = 2.24991e-09, global = 2.73094e-19, cumulative = 9.17992e-19
ExecutionTime = 0.33 s  ClockTime = 1 s

Time = 0.235

Courant Number mean: 0.081013 max: 0.598975
smoothSolver:  Solving for Ux, Initial residual = 0.00615593, Final residual = 1.03516e-06, No Iterations 2
smoothSolver:  Solving for Uy, Initial residual = 0.00958124, Final residual = 1.32476e-06, No Iterations 2
DICPCG:  Solving for p, Initial residual = 0.0124249, Final residual = 0.000509114, No Iterations 7
time step continuity errors : sum local = 2.22838e-06, global = -4.72217e-20, cumulative = 8.7077e-19
DICPCG:  Solving for p, Initial residual = 0.00176273, Final residual = 9.84793e-07, No Iterations 26
time step continuity errors : sum local = 4.35082e-09, global = 2.5595e-19, cumulative = 1.12672e-18
ExecutionTime = 0.34 s  ClockTime = 1 s

Time = 0.24

Courant Number mean: 0.0817773 max: 0.599755
smoothSolver:  Solving for Ux, Initial residual = 0.00611841, Final residual = 9.1208e-07, No Iterations 2
smoothSolver:  Solving for Uy, Initial residual = 0.00933233, Final residual = 1.28539e-06, No Iterations 2
DICPCG:  Solving for p, Initial residual = 0.012658, Final residual = 0.000479184, No Iterations 7
time step continuity errors : sum local = 2.11351e-06, global = 1.31811e-19, cumulative = 1.25853e-18
DICPCG:  Solving for p, Initial residual = 0.0017041, Final residual = 7.86078e-07, No Iterations 26
time step continuity errors : sum local = 3.5014e-09, global = 5.88684e-19, cumulative = 1.84722e-18
ExecutionTime = 0.35 s  ClockTime = 1 s

Time = 0.245

Courant Number mean: 0.0825144 max: 0.600356
smoothSolver:  Solving for Ux, Initial residual = 0.00609079, Final residual = 8.37515e-07, No Iterations 2
smoothSolver:  Solving for Uy, Initial residual = 0.00907825, Final residual = 1.23043e-06, No Iterations 2
DICPCG:  Solving for p, Initial residual = 0.0128188, Final residual = 0.000640651, No Iterations 6
time step continuity errors : sum local = 2.83495e-06, global = -7.22956e-20, cumulative = 1.77492e-18
DICPCG:  Solving for p, Initial residual = 0.00157418, Final residual = 4.58516e-07, No Iterations 26
time step continuity errors : sum local = 2.06238e-09, global = 7.40327e-21, cumulative = 1.78232e-18
ExecutionTime = 0.35 s  ClockTime = 1 s

Time = 0.25

Courant Number mean: 0.0832425 max: 0.600792
smoothSolver:  Solving for Ux, Initial residual = 0.00605415, Final residual = 7.49017e-07, No Iterations 2
smoothSolver:  Solving for Uy, Initial residual = 0.00883362, Final residual = 1.1945e-06, No Iterations 2
DICPCG:  Solving for p, Initial residual = 0.013316, Final residual = 0.000464065, No Iterations 7
time step continuity errors : sum local = 2.07823e-06, global = -4.16568e-19, cumulative = 1.36576e-18
DICPCG:  Solving for p, Initial residual = 0.00162431, Final residual = 6.15595e-07, No Iterations 26
time step continuity errors : sum local = 2.78255e-09, global = -3.69393e-19, cumulative = 9.96362e-19
ExecutionTime = 0.36 s  ClockTime = 1 s

Time = 0.255

Courant Number mean: 0.0839739 max: 0.601082
smoothSolver:  Solving for Ux, Initial residual = 0.00603572, Final residual = 6.57849e-07, No Iterations 2
smoothSolver:  Solving for Uy, Initial residual = 0.00863886, Final residual = 1.1748e-06, No Iterations 2
DICPCG:  Solving for p, Initial residual = 0.0132209, Final residual = 0.00050192, No Iterations 7
time step continuity errors : sum local = 2.26124e-06, global = 2.49023e-19, cumulative = 1.24539e-18
DICPCG:  Solving for p, Initial residual = 0.00157415, Final residual = 6.06891e-07, No Iterations 26
time step continuity errors : sum local = 2.75789e-09, global = 2.88546e-19, cumulative = 1.53393e-18
ExecutionTime = 0.36 s  ClockTime = 1 s

Time = 0.26

Courant Number mean: 0.084686 max: 0.601246
smoothSolver:  Solving for Ux, Initial residual = 0.00603103, Final residual = 6.20129e-07, No Iterations 2
smoothSolver:  Solving for Uy, Initial residual = 0.00845553, Final residual = 1.13904e-06, No Iterations 2
DICPCG:  Solving for p, Initial residual = 0.0120799, Final residual = 0.000423558, No Iterations 7
time step continuity errors : sum local = 1.91951e-06, global = 2.891e-19, cumulative = 1.82303e-18
DICPCG:  Solving for p, Initial residual = 0.00147797, Final residual = 4.62912e-07, No Iterations 26
time step continuity errors : sum local = 2.10089e-09, global = 1.95804e-19, cumulative = 2.01884e-18
ExecutionTime = 0.37 s  ClockTime = 1 s

Time = 0.265

Courant Number mean: 0.0853803 max: 0.601308
smoothSolver:  Solving for Ux, Initial residual = 0.0060208, Final residual = 5.81655e-07, No Iterations 2
smoothSolver:  Solving for Uy, Initial residual = 0.0082784, Final residual = 1.10966e-06, No Iterations 2
DICPCG:  Solving for p, Initial residual = 0.0120791, Final residual = 0.00059772, No Iterations 6
time step continuity errors : sum local = 2.70906e-06, global = 3.38811e-19, cumulative = 2.35765e-18
DICPCG:  Solving for p, Initial residual = 0.00150784, Final residual = 5.5491e-07, No Iterations 26
time step continuity errors : sum local = 2.54091e-09, global = 1.06251e-19, cumulative = 2.4639e-18
ExecutionTime = 0.38 s  ClockTime = 1 s

Time = 0.27

Courant Number mean: 0.0860612 max: 0.601286
smoothSolver:  Solving for Ux, Initial residual = 0.0060056, Final residual = 5.51145e-07, No Iterations 2
smoothSolver:  Solving for Uy, Initial residual = 0.00810876, Final residual = 1.07836e-06, No Iterations 2
DICPCG:  Solving for p, Initial residual = 0.0130854, Final residual = 0.000602202, No Iterations 5
time step continuity errors : sum local = 2.73205e-06, global = -2.92822e-20, cumulative = 2.43461e-18
DICPCG:  Solving for p, Initial residual = 0.00158573, Final residual = 5.01418e-07, No Iterations 26
time step continuity errors : sum local = 2.29265e-09, global = 1.32142e-19, cumulative = 2.56676e-18
ExecutionTime = 0.38 s  ClockTime = 1 s

Time = 0.275

Courant Number mean: 0.0867773 max: 0.601165
smoothSolver:  Solving for Ux, Initial residual = 0.00600018, Final residual = 5.33278e-07, No Iterations 2
smoothSolver:  Solving for Uy, Initial residual = 0.00799484, Final residual = 1.06372e-06, No Iterations 2
DICPCG:  Solving for p, Initial residual = 0.0135458, Final residual = 0.000534809, No Iterations 5
time step continuity errors : sum local = 2.43512e-06, global = -9.04108e-20, cumulative = 2.47635e-18
DICPCG:  Solving for p, Initial residual = 0.00154803, Final residual = 4.72132e-07, No Iterations 26
time step continuity errors : sum local = 2.15445e-09, global = -1.7317e-19, cumulative = 2.30318e-18
ExecutionTime = 0.39 s  ClockTime = 1 s

Time = 0.28

Courant Number mean: 0.0875131 max: 0.60089
smoothSolver:  Solving for Ux, Initial residual = 0.00598782, Final residual = 5.84861e-07, No Iterations 2
smoothSolver:  Solving for Uy, Initial residual = 0.00794752, Final residual = 1.06602e-06, No Iterations 2
DICPCG:  Solving for p, Initial residual = 0.012305, Final residual = 0.000502709, No Iterations 5
time step continuity errors : sum local = 2.2982e-06, global = 1.62127e-19, cumulative = 2.4653e-18
DICPCG:  Solving for p, Initial residual = 0.00147679, Final residual = 4.45352e-07, No Iterations 26
time step continuity errors : sum local = 2.04236e-09, global = -8.06067e-19, cumulative = 1.65924e-18
ExecutionTime = 0.4 s  ClockTime = 1 s

Time = 0.285

Courant Number mean: 0.0882413 max: 0.600526
smoothSolver:  Solving for Ux, Initial residual = 0.00597782, Final residual = 6.16074e-07, No Iterations 2
smoothSolver:  Solving for Uy, Initial residual = 0.00783562, Final residual = 1.05516e-06, No Iterations 2
DICPCG:  Solving for p, Initial residual = 0.0123398, Final residual = 0.000534134, No Iterations 6
time step continuity errors : sum local = 2.45645e-06, global = -3.39387e-19, cumulative = 1.31985e-18
DICPCG:  Solving for p, Initial residual = 0.00143532, Final residual = 8.48539e-07, No Iterations 26
time step continuity errors : sum local = 3.95544e-09, global = 2.57067e-19, cumulative = 1.57692e-18
ExecutionTime = 0.4 s  ClockTime = 1 s

Time = 0.29

Courant Number mean: 0.0889597 max: 0.600111
smoothSolver:  Solving for Ux, Initial residual = 0.00596327, Final residual = 6.08377e-07, No Iterations 2
smoothSolver:  Solving for Uy, Initial residual = 0.00770084, Final residual = 1.03657e-06, No Iterations 2
DICPCG:  Solving for p, Initial residual = 0.0115967, Final residual = 0.000547103, No Iterations 5
time step continuity errors : sum local = 2.51905e-06, global = 2.53779e-19, cumulative = 1.8307e-18
DICPCG:  Solving for p, Initial residual = 0.00150953, Final residual = 5.33439e-07, No Iterations 26
time step continuity errors : sum local = 2.46782e-09, global = 4.96557e-19, cumulative = 2.32725e-18
ExecutionTime = 0.41 s  ClockTime = 1 s

Time = 0.295

Courant Number mean: 0.0896876 max: 0.599649
smoothSolver:  Solving for Ux, Initial residual = 0.00595774, Final residual = 6.12165e-07, No Iterations 2
smoothSolver:  Solving for Uy, Initial residual = 0.0076111, Final residual = 1.02769e-06, No Iterations 2
DICPCG:  Solving for p, Initial residual = 0.0135266, Final residual = 0.00054318, No Iterations 5
time step continuity errors : sum local = 2.50638e-06, global = -3.32692e-19, cumulative = 1.99456e-18
DICPCG:  Solving for p, Initial residual = 0.00145412, Final residual = 4.98414e-07, No Iterations 26
time step continuity errors : sum local = 2.30852e-09, global = 1.21471e-19, cumulative = 2.11603e-18
ExecutionTime = 0.41 s  ClockTime = 1 s

Time = 0.3

Courant Number mean: 0.0904355 max: 0.599178
smoothSolver:  Solving for Ux, Initial residual = 0.00594888, Final residual = 6.2353e-07, No Iterations 2
smoothSolver:  Solving for Uy, Initial residual = 0.00748916, Final residual = 9.95218e-07, No Iterations 2
DICPCG:  Solving for p, Initial residual = 0.0122442, Final residual = 0.000598404, No Iterations 6
time step continuity errors : sum local = 2.77241e-06, global = -2.49809e-20, cumulative = 2.09105e-18
DICPCG:  Solving for p, Initial residual = 0.00153178, Final residual = 5.27222e-07, No Iterations 27
time step continuity errors : sum local = 2.46263e-09, global = 2.19741e-19, cumulative = 2.31079e-18
ExecutionTime = 0.43 s  ClockTime = 1 s

Time = 0.305

Courant Number mean: 0.0911768 max: 0.59865
smoothSolver:  Solving for Ux, Initial residual = 0.00594418, Final residual = 6.29564e-07, No Iterations 2
smoothSolver:  Solving for Uy, Initial residual = 0.00741344, Final residual = 9.80723e-07, No Iterations 2
DICPCG:  Solving for p, Initial residual = 0.0116722, Final residual = 0.000489924, No Iterations 5
time step continuity errors : sum local = 2.26872e-06, global = 5.24598e-19, cumulative = 2.83539e-18
DICPCG:  Solving for p, Initial residual = 0.00144702, Final residual = 4.40306e-07, No Iterations 26
time step continuity errors : sum local = 2.03867e-09, global = 2.2611e-19, cumulative = 3.0615e-18
ExecutionTime = 0.43 s  ClockTime = 1 s

Time = 0.31

Courant Number mean: 0.0919051 max: 0.598101
smoothSolver:  Solving for Ux, Initial residual = 0.00593539, Final residual = 6.31896e-07, No Iterations 2
smoothSolver:  Solving for Uy, Initial residual = 0.00732749, Final residual = 9.72642e-07, No Iterations 2
DICPCG:  Solving for p, Initial residual = 0.0118437, Final residual = 0.000492775, No Iterations 5
time step continuity errors : sum local = 2.28773e-06, global = 6.06902e-19, cumulative = 3.6684e-18
DICPCG:  Solving for p, Initial residual = 0.0013188, Final residual = 4.11393e-07, No Iterations 26
time step continuity errors : sum local = 1.91271e-09, global = 3.29094e-19, cumulative = 3.9975e-18
ExecutionTime = 0.43 s  ClockTime = 1 s

Time = 0.315

Courant Number mean: 0.0926332 max: 0.597551
smoothSolver:  Solving for Ux, Initial residual = 0.00593755, Final residual = 6.30966e-07, No Iterations 2
smoothSolver:  Solving for Uy, Initial residual = 0.0072259, Final residual = 9.45536e-07, No Iterations 2
DICPCG:  Solving for p, Initial residual = 0.0117668, Final residual = 0.000578923, No Iterations 5
time step continuity errors : sum local = 2.69151e-06, global = -1.92981e-19, cumulative = 3.80451e-18
DICPCG:  Solving for p, Initial residual = 0.00135291, Final residual = 4.70759e-07, No Iterations 26
time step continuity errors : sum local = 2.20105e-09, global = -9.74419e-20, cumulative = 3.70707e-18
ExecutionTime = 0.43 s  ClockTime = 1 s

Time = 0.32

Courant Number mean: 0.0933549 max: 0.59703
smoothSolver:  Solving for Ux, Initial residual = 0.00593492, Final residual = 6.05092e-07, No Iterations 2
smoothSolver:  Solving for Uy, Initial residual = 0.00710686, Final residual = 9.1707e-07, No Iterations 2
DICPCG:  Solving for p, Initial residual = 0.0110798, Final residual = 0.000510933, No Iterations 5
time step continuity errors : sum local = 2.37952e-06, global = 2.54854e-19, cumulative = 3.96193e-18
DICPCG:  Solving for p, Initial residual = 0.00129955, Final residual = 4.08414e-07, No Iterations 26
time step continuity errors : sum local = 1.90608e-09, global = -3.14246e-19, cumulative = 3.64768e-18
ExecutionTime = 0.44 s  ClockTime = 1 s

Time = 0.325

Courant Number mean: 0.0940639 max: 0.596531
smoothSolver:  Solving for Ux, Initial residual = 0.00593374, Final residual = 5.8513e-07, No Iterations 2
smoothSolver:  Solving for Uy, Initial residual = 0.00699821, Final residual = 8.9317e-07, No Iterations 2
DICPCG:  Solving for p, Initial residual = 0.0107297, Final residual = 0.00048586, No Iterations 5
time step continuity errors : sum local = 2.26613e-06, global = -2.63622e-19, cumulative = 3.38406e-18
DICPCG:  Solving for p, Initial residual = 0.00129339, Final residual = 3.89613e-07, No Iterations 26
time step continuity errors : sum local = 1.81764e-09, global = -2.8058e-19, cumulative = 3.10348e-18
ExecutionTime = 0.44 s  ClockTime = 1 s

Time = 0.33

Courant Number mean: 0.094766 max: 0.596047
smoothSolver:  Solving for Ux, Initial residual = 0.00591861, Final residual = 5.73472e-07, No Iterations 2
smoothSolver:  Solving for Uy, Initial residual = 0.00689479, Final residual = 8.69877e-07, No Iterations 2
DICPCG:  Solving for p, Initial residual = 0.0110783, Final residual = 0.000514238, No Iterations 5
time step continuity errors : sum local = 2.401e-06, global = -5.54046e-19, cumulative = 2.54943e-18
DICPCG:  Solving for p, Initial residual = 0.00131084, Final residual = 4.33229e-07, No Iterations 26
time step continuity errors : sum local = 2.02952e-09, global = -2.18789e-19, cumulative = 2.33064e-18
ExecutionTime = 0.45 s  ClockTime = 1 s

Time = 0.335

Courant Number mean: 0.0954578 max: 0.595581
smoothSolver:  Solving for Ux, Initial residual = 0.00590067, Final residual = 5.5429e-07, No Iterations 2
smoothSolver:  Solving for Uy, Initial residual = 0.00677897, Final residual = 8.45471e-07, No Iterations 2
DICPCG:  Solving for p, Initial residual = 0.0112585, Final residual = 0.000492846, No Iterations 5
time step continuity errors : sum local = 2.30427e-06, global = 3.47416e-20, cumulative = 2.36538e-18
DICPCG:  Solving for p, Initial residual = 0.0012804, Final residual = 9.63165e-07, No Iterations 25
time step continuity errors : sum local = 4.49891e-09, global = -3.73968e-19, cumulative = 1.99142e-18
ExecutionTime = 0.45 s  ClockTime = 1 s

Time = 0.34

Courant Number mean: 0.0961517 max: 0.59512
smoothSolver:  Solving for Ux, Initial residual = 0.00588637, Final residual = 5.47281e-07, No Iterations 2
smoothSolver:  Solving for Uy, Initial residual = 0.00669154, Final residual = 8.25931e-07, No Iterations 2
DICPCG:  Solving for p, Initial residual = 0.0118397, Final residual = 0.000531407, No Iterations 5
time step continuity errors : sum local = 2.48726e-06, global = -2.47379e-20, cumulative = 1.96668e-18
DICPCG:  Solving for p, Initial residual = 0.00131538, Final residual = 9.26929e-07, No Iterations 25
time step continuity errors : sum local = 4.33779e-09, global = 1.34996e-19, cumulative = 2.10167e-18
ExecutionTime = 0.46 s  ClockTime = 1 s

Time = 0.345

Courant Number mean: 0.0968656 max: 0.594638
smoothSolver:  Solving for Ux, Initial residual = 0.00586527, Final residual = 5.56821e-07, No Iterations 2
smoothSolver:  Solving for Uy, Initial residual = 0.00664947, Final residual = 8.2209e-07, No Iterations 2
DICPCG:  Solving for p, Initial residual = 0.012177, Final residual = 0.0005785, No Iterations 5
time step continuity errors : sum local = 2.71221e-06, global = 2.53205e-19, cumulative = 2.35488e-18
DICPCG:  Solving for p, Initial residual = 0.00139244, Final residual = 9.67384e-07, No Iterations 25
time step continuity errors : sum local = 4.55022e-09, global = 5.73567e-19, cumulative = 2.92845e-18
ExecutionTime = 0.47 s  ClockTime = 1 s

Time = 0.35

Courant Number mean: 0.0976009 max: 0.594099
smoothSolver:  Solving for Ux, Initial residual = 0.00583611, Final residual = 5.82132e-07, No Iterations 2
smoothSolver:  Solving for Uy, Initial residual = 0.0066536, Final residual = 8.31596e-07, No Iterations 2
DICPCG:  Solving for p, Initial residual = 0.0115848, Final residual = 0.000561927, No Iterations 5
time step continuity errors : sum local = 2.6426e-06, global = 3.68426e-19, cumulative = 3.29687e-18
DICPCG:  Solving for p, Initial residual = 0.00127492, Final residual = 4.3515e-07, No Iterations 26
time step continuity errors : sum local = 2.05875e-09, global = -8.01538e-20, cumulative = 3.21672e-18
ExecutionTime = 0.47 s  ClockTime = 1 s

Time = 0.355

Courant Number mean: 0.0983352 max: 0.593614
smoothSolver:  Solving for Ux, Initial residual = 0.00580442, Final residual = 5.45753e-07, No Iterations 2
smoothSolver:  Solving for Uy, Initial residual = 0.00650145, Final residual = 7.88263e-07, No Iterations 2
DICPCG:  Solving for p, Initial residual = 0.0102258, Final residual = 0.00048322, No Iterations 5
time step continuity errors : sum local = 2.27873e-06, global = 1.31103e-19, cumulative = 3.34782e-18
DICPCG:  Solving for p, Initial residual = 0.00122272, Final residual = 9.34268e-07, No Iterations 25
time step continuity errors : sum local = 4.39165e-09, global = 9.01461e-19, cumulative = 4.24928e-18
ExecutionTime = 0.48 s  ClockTime = 1 s

Time = 0.36

Courant Number mean: 0.0990574 max: 0.593144
smoothSolver:  Solving for Ux, Initial residual = 0.00578049, Final residual = 5.33236e-07, No Iterations 2
smoothSolver:  Solving for Uy, Initial residual = 0.00641468, Final residual = 7.66965e-07, No Iterations 2
DICPCG:  Solving for p, Initial residual = 0.0105537, Final residual = 0.000504447, No Iterations 5
time step continuity errors : sum local = 2.38283e-06, global = 2.47989e-19, cumulative = 4.49727e-18
DICPCG:  Solving for p, Initial residual = 0.00123129, Final residual = 9.51708e-07, No Iterations 25
time step continuity errors : sum local = 4.47843e-09, global = 1.55262e-19, cumulative = 4.65253e-18
ExecutionTime = 0.49 s  ClockTime = 1 s

Time = 0.365

Courant Number mean: 0.0997641 max: 0.59269
smoothSolver:  Solving for Ux, Initial residual = 0.00575119, Final residual = 5.21734e-07, No Iterations 2
smoothSolver:  Solving for Uy, Initial residual = 0.00632804, Final residual = 7.45652e-07, No Iterations 2
DICPCG:  Solving for p, Initial residual = 0.0104022, Final residual = 0.000477257, No Iterations 5
time step continuity errors : sum local = 2.25745e-06, global = 9.60357e-20, cumulative = 4.74857e-18
DICPCG:  Solving for p, Initial residual = 0.00119192, Final residual = 8.54108e-07, No Iterations 25
time step continuity errors : sum local = 4.02678e-09, global = -3.91422e-19, cumulative = 4.35715e-18
ExecutionTime = 0.5 s  ClockTime = 1 s

Time = 0.37

Courant Number mean: 0.100471 max: 0.592252
smoothSolver:  Solving for Ux, Initial residual = 0.00571702, Final residual = 5.11914e-07, No Iterations 2
smoothSolver:  Solving for Uy, Initial residual = 0.00624482, Final residual = 7.2537e-07, No Iterations 2
DICPCG:  Solving for p, Initial residual = 0.0107394, Final residual = 0.000519118, No Iterations 5
time step continuity errors : sum local = 2.45697e-06, global = 3.20202e-19, cumulative = 4.67735e-18
DICPCG:  Solving for p, Initial residual = 0.00122537, Final residual = 8.06158e-07, No Iterations 25
time step continuity errors : sum local = 3.8018e-09, global = -6.2601e-19, cumulative = 4.05134e-18
ExecutionTime = 0.5 s  ClockTime = 1 s

Time = 0.375

Courant Number mean: 0.10116 max: 0.591835
smoothSolver:  Solving for Ux, Initial residual = 0.00568887, Final residual = 5.01986e-07, No Iterations 2
smoothSolver:  Solving for Uy, Initial residual = 0.00616709, Final residual = 7.06802e-07, No Iterations 2
DICPCG:  Solving for p, Initial residual = 0.00982893, Final residual = 0.000463837, No Iterations 5
time step continuity errors : sum local = 2.19735e-06, global = -7.84581e-19, cumulative = 3.26676e-18
DICPCG:  Solving for p, Initial residual = 0.00116264, Final residual = 8.14067e-07, No Iterations 25
time step continuity errors : sum local = 3.85151e-09, global = -2.65773e-19, cumulative = 3.00099e-18
ExecutionTime = 0.51 s  ClockTime = 1 s

Time = 0.38

Courant Number mean: 0.101839 max: 0.591437
smoothSolver:  Solving for Ux, Initial residual = 0.00566126, Final residual = 4.90766e-07, No Iterations 2
smoothSolver:  Solving for Uy, Initial residual = 0.00609994, Final residual = 6.87595e-07, No Iterations 2
DICPCG:  Solving for p, Initial residual = 0.00972324, Final residual = 0.000465336, No Iterations 5
time step continuity errors : sum local = 2.20677e-06, global = 2.12585e-19, cumulative = 3.21357e-18
DICPCG:  Solving for p, Initial residual = 0.00115042, Final residual = 8.34017e-07, No Iterations 25
time step continuity errors : sum local = 3.94264e-09, global = -6.3999e-19, cumulative = 2.57358e-18
ExecutionTime = 0.51 s  ClockTime = 1 s

Time = 0.385

Courant Number mean: 0.102513 max: 0.591053
smoothSolver:  Solving for Ux, Initial residual = 0.00563096, Final residual = 4.79974e-07, No Iterations 2
smoothSolver:  Solving for Uy, Initial residual = 0.00603938, Final residual = 6.70825e-07, No Iterations 2
DICPCG:  Solving for p, Initial residual = 0.0101358, Final residual = 0.000494297, No Iterations 5
time step continuity errors : sum local = 2.34528e-06, global = -3.15073e-19, cumulative = 2.25851e-18
DICPCG:  Solving for p, Initial residual = 0.00118166, Final residual = 6.57323e-07, No Iterations 22
time step continuity errors : sum local = 3.1164e-09, global = -9.11553e-20, cumulative = 2.16735e-18
ExecutionTime = 0.52 s  ClockTime = 1 s

Time = 0.39

Courant Number mean: 0.103177 max: 0.590683
smoothSolver:  Solving for Ux, Initial residual = 0.00561282, Final residual = 4.74932e-07, No Iterations 2
smoothSolver:  Solving for Uy, Initial residual = 0.00596851, Final residual = 6.54922e-07, No Iterations 2
DICPCG:  Solving for p, Initial residual = 0.00934231, Final residual = 0.00021338, No Iterations 6
time step continuity errors : sum local = 1.02678e-06, global = 3.5155e-19, cumulative = 2.5189e-18
DICPCG:  Solving for p, Initial residual = 0.000994834, Final residual = 8.21903e-07, No Iterations 24
time step continuity errors : sum local = 3.95876e-09, global = 3.24751e-19, cumulative = 2.84365e-18
ExecutionTime = 0.53 s  ClockTime = 1 s

Time = 0.395

Courant Number mean: 0.103833 max: 0.590327
smoothSolver:  Solving for Ux, Initial residual = 0.00558811, Final residual = 4.68602e-07, No Iterations 2
smoothSolver:  Solving for Uy, Initial residual = 0.00589685, Final residual = 6.43782e-07, No Iterations 2
DICPCG:  Solving for p, Initial residual = 0.00955741, Final residual = 0.000229112, No Iterations 6
time step continuity errors : sum local = 1.10322e-06, global = -2.72142e-19, cumulative = 2.57151e-18
DICPCG:  Solving for p, Initial residual = 0.000983599, Final residual = 6.04699e-07, No Iterations 25
time step continuity errors : sum local = 2.90834e-09, global = -2.1515e-19, cumulative = 2.35636e-18
ExecutionTime = 0.53 s  ClockTime = 1 s

Time = 0.4

Courant Number mean: 0.104476 max: 0.589986
smoothSolver:  Solving for Ux, Initial residual = 0.0055608, Final residual = 4.62074e-07, No Iterations 2
smoothSolver:  Solving for Uy, Initial residual = 0.00582298, Final residual = 6.31309e-07, No Iterations 2
DICPCG:  Solving for p, Initial residual = 0.00910454, Final residual = 0.000453513, No Iterations 5
time step continuity errors : sum local = 2.15952e-06, global = 5.76876e-19, cumulative = 2.93324e-18
DICPCG:  Solving for p, Initial residual = 0.00112667, Final residual = 8.31474e-07, No Iterations 25
time step continuity errors : sum local = 3.94465e-09, global = 4.32615e-19, cumulative = 3.36585e-18
ExecutionTime = 0.54 s  ClockTime = 1 s

Time = 0.405

Courant Number mean: 0.105105 max: 0.589657
smoothSolver:  Solving for Ux, Initial residual = 0.0055277, Final residual = 4.52052e-07, No Iterations 2
smoothSolver:  Solving for Uy, Initial residual = 0.00575877, Final residual = 6.21281e-07, No Iterations 2
DICPCG:  Solving for p, Initial residual = 0.00932565, Final residual = 0.00045324, No Iterations 5
time step continuity errors : sum local = 2.16042e-06, global = 9.53739e-20, cumulative = 3.46123e-18
DICPCG:  Solving for p, Initial residual = 0.00113295, Final residual = 7.67146e-07, No Iterations 25
time step continuity errors : sum local = 3.64134e-09, global = 1.3268e-19, cumulative = 3.59391e-18
ExecutionTime = 0.55 s  ClockTime = 1 s

Time = 0.41

Courant Number mean: 0.105725 max: 0.589341
smoothSolver:  Solving for Ux, Initial residual = 0.00550482, Final residual = 4.41288e-07, No Iterations 2
smoothSolver:  Solving for Uy, Initial residual = 0.00568863, Final residual = 6.11023e-07, No Iterations 2
DICPCG:  Solving for p, Initial residual = 0.00920233, Final residual = 0.000452937, No Iterations 5
time step continuity errors : sum local = 2.16126e-06, global = 6.95245e-19, cumulative = 4.28915e-18
DICPCG:  Solving for p, Initial residual = 0.00110128, Final residual = 7.90855e-07, No Iterations 25
time step continuity errors : sum local = 3.75752e-09, global = 2.65111e-19, cumulative = 4.55426e-18
ExecutionTime = 0.55 s  ClockTime = 1 s

Time = 0.415

Courant Number mean: 0.106346 max: 0.589038
smoothSolver:  Solving for Ux, Initial residual = 0.0054808, Final residual = 4.34548e-07, No Iterations 2
smoothSolver:  Solving for Uy, Initial residual = 0.00562158, Final residual = 5.97573e-07, No Iterations 2
DICPCG:  Solving for p, Initial residual = 0.0109393, Final residual = 0.000466553, No Iterations 5
time step continuity errors : sum local = 2.22887e-06, global = 5.33366e-19, cumulative = 5.08763e-18
DICPCG:  Solving for p, Initial residual = 0.00113384, Final residual = 7.71472e-07, No Iterations 25
time step continuity errors : sum local = 3.67184e-09, global = 2.25324e-19, cumulative = 5.31295e-18
ExecutionTime = 0.56 s  ClockTime = 1 s

Time = 0.42

Courant Number mean: 0.106988 max: 0.588744
smoothSolver:  Solving for Ux, Initial residual = 0.00545463, Final residual = 4.28902e-07, No Iterations 2
smoothSolver:  Solving for Uy, Initial residual = 0.00556328, Final residual = 5.85377e-07, No Iterations 2
DICPCG:  Solving for p, Initial residual = 0.0106392, Final residual = 0.000526933, No Iterations 5
time step continuity errors : sum local = 2.51819e-06, global = 6.74152e-20, cumulative = 5.38037e-18
DICPCG:  Solving for p, Initial residual = 0.00122902, Final residual = 8.28035e-07, No Iterations 25
time step continuity errors : sum local = 3.94898e-09, global = -4.85141e-19, cumulative = 4.89523e-18
ExecutionTime = 0.56 s  ClockTime = 1 s

Time = 0.425

Courant Number mean: 0.107657 max: 0.588418
smoothSolver:  Solving for Ux, Initial residual = 0.00540857, Final residual = 4.39138e-07, No Iterations 2
smoothSolver:  Solving for Uy, Initial residual = 0.0055545, Final residual = 5.91466e-07, No Iterations 2
DICPCG:  Solving for p, Initial residual = 0.00931595, Final residual = 0.000455066, No Iterations 5
time step continuity errors : sum local = 2.1787e-06, global = -8.2223e-20, cumulative = 4.813e-18
DICPCG:  Solving for p, Initial residual = 0.00111792, Final residual = 7.20886e-07, No Iterations 25
time step continuity errors : sum local = 3.43411e-09, global = 2.99936e-19, cumulative = 5.11294e-18
ExecutionTime = 0.57 s  ClockTime = 1 s

Time = 0.43

Courant Number mean: 0.108319 max: 0.588098
smoothSolver:  Solving for Ux, Initial residual = 0.00536531, Final residual = 4.38309e-07, No Iterations 2
smoothSolver:  Solving for Uy, Initial residual = 0.00549149, Final residual = 5.8627e-07, No Iterations 2
DICPCG:  Solving for p, Initial residual = 0.00935972, Final residual = 0.000448708, No Iterations 5
time step continuity errors : sum local = 2.14914e-06, global = -9.57048e-20, cumulative = 5.01724e-18
DICPCG:  Solving for p, Initial residual = 0.00109837, Final residual = 6.4721e-07, No Iterations 25
time step continuity errors : sum local = 3.08616e-09, global = 4.13425e-19, cumulative = 5.43066e-18
ExecutionTime = 0.58 s  ClockTime = 1 s

Time = 0.435

Courant Number mean: 0.108975 max: 0.58779
smoothSolver:  Solving for Ux, Initial residual = 0.00531954, Final residual = 4.35218e-07, No Iterations 2
smoothSolver:  Solving for Uy, Initial residual = 0.00542218, Final residual = 5.7732e-07, No Iterations 2
DICPCG:  Solving for p, Initial residual = 0.00858485, Final residual = 0.00040072, No Iterations 5
time step continuity errors : sum local = 1.9238e-06, global = -2.2582e-20, cumulative = 5.40808e-18
DICPCG:  Solving for p, Initial residual = 0.00105148, Final residual = 5.44068e-07, No Iterations 22
time step continuity errors : sum local = 2.59956e-09, global = -7.93349e-19, cumulative = 4.61473e-18
ExecutionTime = 0.58 s  ClockTime = 1 s

Time = 0.44

Courant Number mean: 0.109619 max: 0.587493
smoothSolver:  Solving for Ux, Initial residual = 0.00529035, Final residual = 4.28781e-07, No Iterations 2
smoothSolver:  Solving for Uy, Initial residual = 0.00536988, Final residual = 5.65825e-07, No Iterations 2
DICPCG:  Solving for p, Initial residual = 0.00846845, Final residual = 0.000389561, No Iterations 5
time step continuity errors : sum local = 1.87212e-06, global = 4.73646e-19, cumulative = 5.08838e-18
DICPCG:  Solving for p, Initial residual = 0.00104636, Final residual = 8.49572e-07, No Iterations 22
time step continuity errors : sum local = 4.04995e-09, global = -3.48326e-19, cumulative = 4.74005e-18
ExecutionTime = 0.59 s  ClockTime = 1 s

Time = 0.445

Courant Number mean: 0.110259 max: 0.587207
smoothSolver:  Solving for Ux, Initial residual = 0.00525283, Final residual = 4.22995e-07, No Iterations 2
smoothSolver:  Solving for Uy, Initial residual = 0.00531641, Final residual = 5.56338e-07, No Iterations 2
DICPCG:  Solving for p, Initial residual = 0.00907445, Final residual = 0.000390424, No Iterations 5
time step continuity errors : sum local = 1.87693e-06, global = 7.91612e-20, cumulative = 4.81921e-18
DICPCG:  Solving for p, Initial residual = 0.000997291, Final residual = 6.27141e-07, No Iterations 25
time step continuity errors : sum local = 2.99228e-09, global = 8.37024e-19, cumulative = 5.65624e-18
ExecutionTime = 0.59 s  ClockTime = 1 s

Time = 0.45

Courant Number mean: 0.11092 max: 0.586941
smoothSolver:  Solving for Ux, Initial residual = 0.00521307, Final residual = 4.13535e-07, No Iterations 2
smoothSolver:  Solving for Uy, Initial residual = 0.00524088, Final residual = 5.34403e-07, No Iterations 2
DICPCG:  Solving for p, Initial residual = 0.0102996, Final residual = 0.000458551, No Iterations 5
time step continuity errors : sum local = 2.20168e-06, global = -1.72054e-20, cumulative = 5.63903e-18
DICPCG:  Solving for p, Initial residual = 0.00113505, Final residual = 7.30866e-07, No Iterations 25
time step continuity errors : sum local = 3.4781e-09, global = -5.60001e-19, cumulative = 5.07903e-18
ExecutionTime = 0.59 s  ClockTime = 1 s

Time = 0.455

Courant Number mean: 0.111568 max: 0.586694
smoothSolver:  Solving for Ux, Initial residual = 0.00516714, Final residual = 4.04e-07, No Iterations 2
smoothSolver:  Solving for Uy, Initial residual = 0.00515782, Final residual = 5.14799e-07, No Iterations 2
DICPCG:  Solving for p, Initial residual = 0.00892529, Final residual = 0.000400105, No Iterations 5
time step continuity errors : sum local = 1.92345e-06, global = -6.09219e-19, cumulative = 4.46981e-18
DICPCG:  Solving for p, Initial residual = 0.00105271, Final residual = 6.76773e-07, No Iterations 25
time step continuity errors : sum local = 3.22918e-09, global = -1.01743e-20, cumulative = 4.45964e-18
ExecutionTime = 0.6 s  ClockTime = 1 s

Time = 0.46

Courant Number mean: 0.112207 max: 0.586451
smoothSolver:  Solving for Ux, Initial residual = 0.0051269, Final residual = 3.98846e-07, No Iterations 2
smoothSolver:  Solving for Uy, Initial residual = 0.00509717, Final residual = 5.05504e-07, No Iterations 2
DICPCG:  Solving for p, Initial residual = 0.00802857, Final residual = 0.00034369, No Iterations 5
time step continuity errors : sum local = 1.65501e-06, global = -3.97791e-19, cumulative = 4.06184e-18
DICPCG:  Solving for p, Initial residual = 0.000946982, Final residual = 5.06397e-07, No Iterations 22
time step continuity errors : sum local = 2.41218e-09, global = -3.62471e-19, cumulative = 3.69937e-18
ExecutionTime = 0.6 s  ClockTime = 1 s

Time = 0.465

Courant Number mean: 0.112845 max: 0.586217
smoothSolver:  Solving for Ux, Initial residual = 0.00510393, Final residual = 3.95136e-07, No Iterations 2
smoothSolver:  Solving for Uy, Initial residual = 0.00504091, Final residual = 4.94612e-07, No Iterations 2
DICPCG:  Solving for p, Initial residual = 0.00890548, Final residual = 0.000338129, No Iterations 5
time step continuity errors : sum local = 1.62974e-06, global = -1.46163e-19, cumulative = 3.55321e-18
DICPCG:  Solving for p, Initial residual = 0.000934616, Final residual = 5.45219e-07, No Iterations 25
time step continuity errors : sum local = 2.60335e-09, global = 3.52214e-19, cumulative = 3.90542e-18
ExecutionTime = 0.61 s  ClockTime = 1 s

Time = 0.47

Courant Number mean: 0.11348 max: 0.585992
smoothSolver:  Solving for Ux, Initial residual = 0.00508596, Final residual = 3.91192e-07, No Iterations 2
smoothSolver:  Solving for Uy, Initial residual = 0.00498703, Final residual = 4.84807e-07, No Iterations 2
DICPCG:  Solving for p, Initial residual = 0.00873958, Final residual = 0.000357941, No Iterations 5
time step continuity errors : sum local = 1.72721e-06, global = -1.44757e-20, cumulative = 3.89095e-18
DICPCG:  Solving for p, Initial residual = 0.00096763, Final residual = 5.65002e-07, No Iterations 25
time step continuity errors : sum local = 2.70161e-09, global = -3.61726e-19, cumulative = 3.52922e-18
ExecutionTime = 0.61 s  ClockTime = 1 s

Time = 0.475

Courant Number mean: 0.11411 max: 0.585774
smoothSolver:  Solving for Ux, Initial residual = 0.00505425, Final residual = 3.86218e-07, No Iterations 2
smoothSolver:  Solving for Uy, Initial residual = 0.0049336, Final residual = 4.75162e-07, No Iterations 2
DICPCG:  Solving for p, Initial residual = 0.00872199, Final residual = 0.000374864, No Iterations 5
time step continuity errors : sum local = 1.81076e-06, global = -3.52379e-20, cumulative = 3.49399e-18
DICPCG:  Solving for p, Initial residual = 0.000978112, Final residual = 5.77031e-07, No Iterations 25
time step continuity errors : sum local = 2.75993e-09, global = 5.0185e-19, cumulative = 3.99584e-18
ExecutionTime = 0.62 s  ClockTime = 1 s

Time = 0.48

Courant Number mean: 0.114731 max: 0.585565
smoothSolver:  Solving for Ux, Initial residual = 0.00502079, Final residual = 3.82336e-07, No Iterations 2
smoothSolver:  Solving for Uy, Initial residual = 0.00487917, Final residual = 4.65811e-07, No Iterations 2
DICPCG:  Solving for p, Initial residual = 0.00812344, Final residual = 0.000310094, No Iterations 5
time step continuity errors : sum local = 1.50349e-06, global = 2.733e-19, cumulative = 4.26914e-18
DICPCG:  Solving for p, Initial residual = 0.000896029, Final residual = 4.65443e-07, No Iterations 25
time step continuity errors : sum local = 2.23236e-09, global = 3.49153e-19, cumulative = 4.61829e-18
ExecutionTime = 0.62 s  ClockTime = 1 s

Time = 0.485

Courant Number mean: 0.115348 max: 0.585365
smoothSolver:  Solving for Ux, Initial residual = 0.00499762, Final residual = 3.80135e-07, No Iterations 2
smoothSolver:  Solving for Uy, Initial residual = 0.00482965, Final residual = 4.59543e-07, No Iterations 2
DICPCG:  Solving for p, Initial residual = 0.00823468, Final residual = 0.00030406, No Iterations 5
time step continuity errors : sum local = 1.4771e-06, global = 2.9795e-19, cumulative = 4.91624e-18
DICPCG:  Solving for p, Initial residual = 0.000888333, Final residual = 4.5016e-07, No Iterations 25
time step continuity errors : sum local = 2.16233e-09, global = -7.99718e-19, cumulative = 4.11652e-18
ExecutionTime = 0.62 s  ClockTime = 1 s

Time = 0.49

Courant Number mean: 0.115957 max: 0.585174
smoothSolver:  Solving for Ux, Initial residual = 0.00497395, Final residual = 3.77353e-07, No Iterations 2
smoothSolver:  Solving for Uy, Initial residual = 0.00477902, Final residual = 4.53252e-07, No Iterations 2
DICPCG:  Solving for p, Initial residual = 0.00789083, Final residual = 0.00032106, No Iterations 5
time step continuity errors : sum local = 1.56084e-06, global = -3.85714e-19, cumulative = 3.73081e-18
DICPCG:  Solving for p, Initial residual = 0.000877969, Final residual = 4.66776e-07, No Iterations 25
time step continuity errors : sum local = 2.24014e-09, global = 1.54765e-19, cumulative = 3.88557e-18
ExecutionTime = 0.63 s  ClockTime = 1 s

Time = 0.495

Courant Number mean: 0.116558 max: 0.584994
smoothSolver:  Solving for Ux, Initial residual = 0.00494321, Final residual = 3.71175e-07, No Iterations 2
smoothSolver:  Solving for Uy, Initial residual = 0.00472351, Final residual = 4.44083e-07, No Iterations 2
DICPCG:  Solving for p, Initial residual = 0.00806543, Final residual = 0.000339089, No Iterations 5
time step continuity errors : sum local = 1.64925e-06, global = -9.75247e-19, cumulative = 2.91033e-18
DICPCG:  Solving for p, Initial residual = 0.000891378, Final residual = 4.74892e-07, No Iterations 25
time step continuity errors : sum local = 2.28299e-09, global = -8.40333e-19, cumulative = 2.06999e-18
ExecutionTime = 0.63 s  ClockTime = 1 s

Time = 0.5

Courant Number mean: 0.11715 max: 0.584826
smoothSolver:  Solving for Ux, Initial residual = 0.00491238, Final residual = 3.66127e-07, No Iterations 2
smoothSolver:  Solving for Uy, Initial residual = 0.00465994, Final residual = 4.3393e-07, No Iterations 2
DICPCG:  Solving for p, Initial residual = 0.00812417, Final residual = 0.000326724, No Iterations 5
time step continuity errors : sum local = 1.59115e-06, global = 9.48776e-20, cumulative = 2.16487e-18
DICPCG:  Solving for p, Initial residual = 0.000886961, Final residual = 4.25921e-07, No Iterations 25
time step continuity errors : sum local = 2.05571e-09, global = 4.89691e-19, cumulative = 2.65456e-18
ExecutionTime = 0.65 s  ClockTime = 2 s

End

